LTspice 24.0.12 for Windows
Circuit: 1 Parcial:
Start Time: Mon Dec  9 21:59:27 2024
Fatal Error: Unknown SPICE device type "-" in "-kirchoff"
