LTspice 24.0.12 for Windows
Circuit: * Z:\home\fran\Universidad\Primero\Electronica\Draft1.asc
Start Time: Thu Oct 24 10:56:28 2024
Warning: Multiple definitions of model "2scr375p" Type: BJT
Warning: Multiple definitions of model "bc857b" Type: BJT
Warning: Multiple definitions of model "bc847c" Type: BJT
Warning: Multiple definitions of model "bc847b" Type: BJT
Error on line 2 : vce n001 0 v
	 Unknown parameter "v"
solver = Normal
Maximum thread count: 12
tnom = 27
temp = 27
method = modified trap
Fatal Error: Missing current value for "ib"
